Version 4
SHEET 1 2264 1536
WIRE -3200 -224 -3408 -224
WIRE -2704 -224 -2912 -224
WIRE -3408 -160 -3408 -224
WIRE -2112 -112 -2240 -112
WIRE -1920 -112 -2112 -112
WIRE -1632 -112 -1920 -112
WIRE -1232 -112 -1632 -112
WIRE -816 -112 -1232 -112
WIRE -816 -80 -816 -112
WIRE -624 -80 -816 -80
WIRE -496 -80 -624 -80
WIRE -32 -80 -496 -80
WIRE 160 -80 -32 -80
WIRE 272 -80 160 -80
WIRE 864 -80 368 -80
WIRE -1920 -64 -1920 -112
WIRE -1632 -48 -1632 -112
WIRE -816 -48 -816 -80
WIRE -32 -48 -32 -80
WIRE -3408 16 -3408 -80
WIRE -2912 16 -2912 -224
WIRE 320 16 320 -16
WIRE 528 16 320 16
WIRE 864 16 864 -80
WIRE 864 16 608 16
WIRE 160 48 160 -80
WIRE 176 48 160 48
WIRE 320 48 320 16
WIRE 320 48 272 48
WIRE -2112 80 -2112 -112
WIRE -1920 80 -1920 16
WIRE -1632 80 -1632 32
WIRE -816 80 -816 32
WIRE -32 80 -32 32
WIRE -1776 128 -1856 128
WIRE -1696 128 -1776 128
WIRE -880 128 -1696 128
WIRE -96 128 -880 128
WIRE -3408 192 -3408 96
WIRE -2912 192 -2912 96
WIRE -32 208 -32 176
WIRE 224 208 224 112
WIRE 224 208 -32 208
WIRE -1920 256 -1920 176
WIRE -1776 256 -1776 128
WIRE -1776 256 -1920 256
WIRE -1232 288 -1232 -112
WIRE -1232 288 -1360 288
WIRE -1360 304 -1360 288
WIRE -1920 336 -1920 256
WIRE 112 336 64 336
WIRE 256 336 192 336
WIRE 352 336 256 336
WIRE 864 336 864 16
WIRE 864 336 432 336
WIRE -1632 352 -1632 176
WIRE -1424 352 -1632 352
WIRE 864 384 864 336
WIRE -1232 400 -1232 288
WIRE 64 400 64 336
WIRE 256 416 256 336
WIRE -1360 448 -1360 400
WIRE -1296 448 -1360 448
WIRE -2112 480 -2112 144
WIRE -1920 480 -1920 416
WIRE -1920 480 -2112 480
WIRE 208 480 176 480
WIRE 464 480 304 480
WIRE -1216 496 -1232 496
WIRE -32 512 -32 208
WIRE 176 512 176 480
WIRE 176 512 -32 512
WIRE 464 512 464 480
WIRE 864 512 864 464
WIRE 864 512 464 512
WIRE 1056 512 864 512
WIRE 1152 512 1056 512
WIRE -1216 544 -1216 496
WIRE 1056 576 1056 512
WIRE 864 608 864 512
WIRE -496 640 -496 -80
WIRE -32 640 -32 512
WIRE -2112 656 -2112 480
WIRE -1984 688 -2064 688
WIRE -1216 688 -1216 624
WIRE -1088 688 -1216 688
WIRE -560 688 -1008 688
WIRE 480 688 32 688
WIRE 480 720 480 688
WIRE 864 720 864 688
WIRE 864 720 480 720
WIRE 1056 736 1056 656
WIRE 864 752 864 720
WIRE -496 768 -496 736
WIRE -256 768 -496 768
WIRE -32 768 -32 736
WIRE -32 768 -256 768
WIRE -2112 816 -2112 752
WIRE -1984 816 -1984 688
WIRE -1984 816 -2112 816
WIRE -1216 864 -1216 688
WIRE -624 864 -624 -80
WIRE 864 880 864 832
WIRE -816 912 -816 176
WIRE -688 912 -816 912
WIRE -2112 928 -2112 816
WIRE -1632 960 -1632 352
WIRE -1472 1008 -1568 1008
WIRE -1216 1008 -1216 928
WIRE -1216 1008 -1392 1008
WIRE -816 1040 -816 912
WIRE -256 1040 -256 768
WIRE -624 1088 -624 960
WIRE -624 1088 -752 1088
WIRE -320 1088 -624 1088
WIRE -1216 1104 -1216 1008
WIRE -816 1248 -816 1136
WIRE -624 1264 -624 1088
WIRE -256 1264 -256 1136
WIRE -1632 1328 -1632 1056
WIRE -1216 1328 -1216 1184
WIRE -816 1392 -816 1328
WIRE -624 1392 -624 1344
WIRE -256 1392 -256 1344
FLAG 1056 736 0
FLAG 864 880 0
FLAG 64 400 0
FLAG -2912 192 0
FLAG 1152 512 Vout
FLAG -1216 1328 0
FLAG -1632 1328 0
FLAG -2112 928 0
FLAG -816 1392 0
FLAG -256 1392 0
FLAG -624 1392 0
FLAG -2704 -224 Vin
FLAG -3408 192 0
FLAG -3200 -224 Vin2
FLAG -2240 -112 Vin2
SYMBOL npn 176 112 R270
SYMATTR InstName T2
SYMATTR Value CustomT2
SYMBOL npn 272 -16 R270
SYMATTR InstName T1
SYMATTR Value CustomT1
SYMBOL npn 208 416 M90
SYMATTR InstName CustomT3
SYMATTR Value 2N2222
SYMBOL npn 32 640 M0
SYMATTR InstName T4
SYMATTR Value CustomT3
SYMBOL res 624 0 R90
WINDOW 0 0 56 VBottom 2
WINDOW 3 32 56 VTop 2
SYMATTR InstName R5
SYMATTR Value 100
SYMBOL res 448 320 R90
WINDOW 0 0 56 VBottom 2
WINDOW 3 32 56 VTop 2
SYMATTR InstName R4
SYMATTR Value 100
SYMBOL res 208 320 R90
WINDOW 0 0 56 VBottom 2
WINDOW 3 32 56 VTop 2
SYMATTR InstName R3
SYMATTR Value 10k
SYMBOL res 848 368 R0
SYMATTR InstName R6
SYMATTR Value 0.5
SYMBOL res 848 592 R0
SYMATTR InstName R8
SYMATTR Value 600
SYMBOL res 1040 560 R0
SYMATTR InstName RL
SYMATTR Value 150
SYMBOL res 848 736 R0
SYMATTR InstName R7
SYMATTR Value 1k
SYMBOL voltage -2912 0 R0
SYMATTR InstName V1
SYMATTR Value 40
SYMBOL npn -560 640 R0
SYMATTR InstName T3
SYMATTR Value CustomT3
SYMBOL zener -1200 928 R180
WINDOW 0 24 64 Left 2
WINDOW 3 24 0 Left 2
SYMATTR InstName D4
SYMATTR Value 1N750
SYMBOL res -1200 1200 R180
WINDOW 0 36 76 Left 2
WINDOW 3 36 40 Left 2
SYMATTR InstName R12
SYMATTR Value 5k
SYMBOL res -1488 1024 R270
WINDOW 0 32 56 VTop 2
WINDOW 3 0 56 VBottom 2
SYMATTR InstName R13
SYMATTR Value 30k
SYMBOL npn -1568 960 M0
SYMATTR InstName T5
SYMATTR Value CustomT2
SYMBOL npn -1424 304 R0
SYMATTR InstName T6
SYMATTR Value CustomT2
SYMBOL npn -1296 400 R0
SYMATTR InstName T7
SYMATTR Value CustomT1
SYMBOL res -1200 640 R180
WINDOW 0 36 76 Left 2
WINDOW 3 36 40 Left 2
SYMATTR InstName R14
SYMATTR Value 100
SYMBOL res -1104 704 R270
WINDOW 0 32 56 VTop 2
WINDOW 3 0 56 VBottom 2
SYMATTR InstName R15
SYMATTR Value 250
SYMBOL zener -2096 144 R180
WINDOW 0 24 64 Left 2
WINDOW 3 24 0 Left 2
SYMATTR InstName D5
SYMATTR Value BZX84C6V2L
SYMBOL pnp -1856 176 R180
SYMATTR InstName TF1
SYMATTR Value CustomTF
SYMBOL pnp -1696 176 M180
SYMATTR InstName TF2
SYMATTR Value CustomTF
SYMBOL res -1936 -80 R0
SYMATTR InstName R16
SYMATTR Value 500
SYMBOL res -1648 -64 R0
SYMATTR InstName R17
SYMATTR Value 25k
SYMBOL res -1936 320 R0
SYMATTR InstName R18
SYMATTR Value 15.5k
SYMBOL njf -2064 752 R180
SYMATTR InstName J2
SYMBOL pnp -96 176 M180
SYMATTR InstName TF3
SYMATTR Value CustomTF
SYMBOL res -48 -64 R0
SYMATTR InstName R9
SYMATTR Value 1k
SYMBOL pnp -880 176 M180
SYMATTR InstName TF4
SYMATTR Value CustomTF
SYMBOL res -832 -64 R0
SYMATTR InstName R11
SYMATTR Value 1k
SYMBOL npn -752 1040 M0
SYMATTR InstName T8
SYMATTR Value CustomT2
SYMBOL npn -320 1040 R0
SYMATTR InstName T9
SYMATTR Value CustomT2
SYMBOL res -832 1232 R0
SYMATTR InstName R19
SYMATTR Value 300
SYMBOL res -272 1248 R0
SYMATTR InstName R20
SYMATTR Value 150
SYMBOL npn -688 864 R0
SYMATTR InstName T10
SYMATTR Value CustomT2
SYMBOL res -640 1248 R0
SYMATTR InstName R21
SYMATTR Value 20k
SYMBOL voltage -3408 0 R0
SYMATTR InstName V3
SYMATTR Value 40
SYMBOL voltage -3408 -176 R0
SYMATTR InstName V4
SYMATTR Value PULSE(0 0.3 0 0.001 0.02 1n 0.021)
TEXT 96 928 Left 2 !.model CustomT1 AKO: 2N2222 BF=20
TEXT 96 976 Left 2 !.model CustomT2 AKO: 2N2222 BF=50
TEXT 96 1032 Left 2 !.model CustomT3 AKO: 2N2222 BF=200
TEXT 104 872 Left 2 !.tran 0 10 0 0.01
TEXT 96 1080 Left 2 !.model CustomTF AKO: 2N2907 BF=100
